Version 4
SHEET 1 880 680
SYMBOL res -144 16 R0
SYMATTR InstName R1
SYMBOL cap 64 32 R0
SYMATTR InstName C1
SYMBOL polcap 128 32 R0
SYMATTR InstName C2
SYMBOL ind -80 16 R0
SYMATTR InstName L1
SYMBOL ind2 -16 16 R0
SYMATTR InstName L2
SYMBOL diode 208 32 R0
SYMATTR InstName D1
SYMBOL zener 288 32 R0
SYMATTR InstName D2
SYMBOL schottky 368 32 R0
SYMATTR InstName D3
SYMBOL varactor 448 32 R0
SYMATTR InstName D4
SYMBOL npn -128 160 R0
SYMATTR InstName Q1
SYMBOL pnp -128 304 R0
SYMATTR InstName Q2
SYMBOL njf 16 160 R0
SYMATTR InstName J1
SYMBOL pjf 16 304 R0
SYMATTR InstName J2
SYMBOL nmos 160 160 R0
SYMATTR InstName M1
SYMBOL nmos4 320 160 R0
SYMATTR InstName M2
SYMBOL pmos 160 304 R0
SYMATTR InstName M3
SYMBOL pmos4 320 304 R0
SYMATTR InstName M4
SYMBOL LED 528 32 R0
SYMATTR InstName D5
SYMBOL TVSdiode 608 32 R0
SYMATTR InstName D6
SYMBOL npn2 480 160 R0
SYMATTR InstName Q3
SYMBOL pnp2 480 304 R0
SYMATTR InstName Q4
TEXT -136 8 Left 1 ;res
TEXT -72 8 Left 1 ;ind
TEXT -8 8 Left 1 ;ind2
TEXT 64 8 Left 1 ;cap
TEXT 128 8 Left 1 ;polcap
TEXT 208 8 Left 1 ;diode
TEXT 280 8 Left 1 ;zener
TEXT 352 8 Left 1 ;schottky
TEXT 440 8 Left 1 ;varactor
TEXT 528 8 Left 1 ;LED
TEXT 592 8 Left 1 ;TVSdiode
TEXT -112 144 Left 1 ;npn
TEXT -112 288 Left 1 ;pnp
TEXT 32 144 Left 1 ;njf
TEXT 32 288 Left 1 ;pjf
TEXT 160 144 Left 1 ;nmos
TEXT 160 288 Left 1 ;pmos
TEXT 320 144 Left 1 ;nmos4
TEXT 320 288 Left 1 ;pmos4
TEXT 496 144 Left 1 ;npn2
TEXT 496 288 Left 1 ;pnp2
